**DIRAC
.WAVE FUNCTION
.4INDEX
.PROPER
#.INPTES
**WAVE FUNCTION
.SCF
.RELCCSD
*SCF
.FCKCNV
1.0D-9
.MAXITR
70
.CLOSED SHELL
10
**INTEGRALS
.NUCMOD
1
*TWOINT
.SCREEN
-1
*READIN
.CONTRA
**GENERAL
.SPHTRA
1 1
**HAMILTONIAN
#.LEVY-LEBLOND
#.LVCORR
.NONREL
#.DOSSSS
#.X2Cmmf
**RELCCSD
.ENERGY
.EOMCC
.EOMPROP
.PRINT
0
*EOMCC
.IP
1 3
*EOMPROP
.EXCPRP
1 3
*CCDIAG
#.NOOVERLAP
*CCENER
.MAXIT
45
**MOLTRA
.SCHEME
6
.ACTIVE
all
**PROPERTIES
.DIPOLE
**MOLECULE
*COORDINATES
.UNITS
AU
#*SYMMETRY
#.NOSYM
*BASIS
.DEFAULT
cc-pVDZ
*END OF

