**DIRAC
.WAVE FUNCTION
.4INDEX
**WAVE FUNCTION
.SCF
.RELCCSD
*SCF
.FCKCNV
1.0D-9
.MAXITR
70
**INTEGRALS
.NUCMOD
1
*TWOINT
.SCREEN
-1
*READIN
.CONTRA
**GENERAL
.SPHTRA
1 1
**HAMILTONIAN
**RELCCSD
.PRINT
1
.ENERGY
.EOMCC
*EOMCC
.IP
1 6
#.IP
#2 6
*CCENER
.MAXIT
45
*CCDIAG
.MAXSIZE
1024
.MAXITER
160
**MOLTRA
.ACTIVE
all
*END OF
